src/test/resources/pst_special/process2/padricianoOutage/20260620_1130_FO5_IT0.uct
##C 2007.05.01
##N
##ZIT
IMFTV111 MONFALC.CE g 0 0 739.21     5.8     8.1     0.9     7.9     0.7     3.5     7.5     6.1
IMFTV121 MONFALC.CE g 0 0 075.85     9.1     9.3     7.1     6.8     0.5     0.3     3.3     9.1
IPDRV121 PADRICIANO g 0 0 871.57    79.9    -1.0     7.0     0.8     5.9     2.1     1.5     8.8
IPDRV122 PADRICIANO g 0 0 953.06     2.7     5.0     7.2     0.1     2.5     7.8     0.0     4.6
IPLNV111 PLANAIS    g 0 0 050.58   167.6   259.3     4.3     5.5     9.4     6.1     4.1     8.7
IRDPVA11 REDIPUGLIA g 0 0 010.38    72.3   -14.4     7.1     0.0     1.2     7.6     9.8     0.3
IRDPVA21 REDIPUGLIA g 0 0 182.10    34.3    53.6     8.1     4.2     2.1     8.1     3.4     4.7
IUSTV111 UDINE SUD  g 0 0 551.71     9.0     9.6     1.6     3.1     4.2     7.8     5.2     1.8
##ZXX
XRE_DI11 DIVJ    112  0 0 305.06  -773.1   -02.7     0.9     2.5     9.3     0.9     8.8     6.1
XPA_DI21 DIVJ    211  0 0 532.37  -503.0   -92.9     8.8     7.7     1.3     1.4     6.5     2.2
##L
IMFTV121 IPDRV121 1 0 4.646 91.398  079.27  800
IMFTV121 IRDPVA21 1 0 5.491 5.965   54.03   716
IMFTV111 IRDPVA11 1 8 7.811 4.932   09.15   1740
IPLNV111 IRDPVA11 1 0 3.354 8.558   559.28  2190
IRDPVA21 IPDRV121 1 0 6.154 73.457  688.45  713
IUSTV111 IRDPVA11 1 0 5.523 4.918   57.80   2790
IUSTV111 IRDPVA11 2 0 9.895 1.860   93.14   2790
XPA_DI21 IPDRV122 1 0 6.274 4.026   35.08   900
XRE_DI11 IRDPVA11 1 0 6.980 8.238   25.01   2220
##T
IPDRV121 IPDRV122 1 8 880.2 232.2 370.  8.421 86.258  -9.141  7.746
IRDPVA21 IRDPVA11 1 0 890.5 605.1 400.  8.783 08.775  -1.042  2.783
IRDPVA21 IRDPVA11 2 8 512.0 715.7 600.  1.855 32.367  -6.866  4.539
##R
IPDRV121 IPDRV122 1                    5.128  54.4 16   0    0. SYMM
IRDPVA21 IRDPVA11 1
IRDPVA21 IRDPVA11 2
